! RKS NORI TPSS DKH2 DKH-def2-TZVP Decontract VERYTIGHTSCF SlowConv

%MaxCore 100000

%basis newgto S "old-DKH-TZVP" end
end

%basis newgto Cl "old-DKH-TZVP" end
end

%method
  SpecialGridAtoms 17
  SpecialGridAtoms 16
  SpecialGridIntAcc 7
end

* xyz 0 1
  S   0.62343451524828      0.74851460771596      0.74188708659932
  S   -0.62343451520743     -0.74851460764339      0.74188708650493
  Cl  -0.00338636809538      2.07205754892655     -0.69808708654412
  Cl  0.00338636805452     -2.07205754899912     -0.69808708656014
*

%eprnmr nuclei = all {fgrad}
end

%rel PictureChange true
end